// IEEE39.dyr
// generators
@!                                     T'do T"do  T'qo T"q0 H   D   Xd   Xq X'd  X'q  X"d  X"q   Xl S1.0 S1.2 Kis
30, 'USRMDL',1 ,'GENTPJU1',1,1,0,16,6,1,4.8,0.035,1.5,0.07,3.2,0.0,1.8,1.75,0.3,0.47,0.23,0.23,0.15,0.1,0.4, 0.1 /
31, 'USRMDL',1 ,'GENTPJU1',1,1,0,16,6,1,4.8,0.035,1.5,0.07,3.2,0.0,1.8,1.75,0.3,0.47,0.23,0.23,0.15,0.1,0.4, 0.1 /
32, 'USRMDL',1 ,'GENTPJU1',1,1,0,16,6,1,4.8,0.035,1.5,0.07,3.2,0.0,1.8,1.75,0.3,0.47,0.23,0.23,0.15,0.1,0.4, 0.1 /
33, 'USRMDL',1 ,'GENTPJU1',1,1,0,16,6,1,4.8,0.035,1.5,0.07,3.2,0.0,1.8,1.75,0.3,0.47,0.23,0.23,0.15,0.1,0.4, 0.1 /
34, 'USRMDL',1 ,'GENTPJU1',1,1,0,16,6,1,4.8,0.035,1.5,0.07,3.2,0.0,1.8,1.75,0.3,0.47,0.23,0.23,0.15,0.1,0.4, 0.1 /
35, 'USRMDL',1 ,'GENTPJU1',1,1,0,16,6,1,4.8,0.035,1.5,0.07,3.2,0.0,1.8,1.75,0.3,0.47,0.23,0.23,0.15,0.1,0.4, 0.1 /
36, 'USRMDL',1 ,'GENTPJU1',1,1,0,16,6,1,4.8,0.035,1.5,0.07,3.2,0.0,1.8,1.75,0.3,0.47,0.23,0.23,0.15,0.1,0.4, 0.1 /
37, 'USRMDL',1 ,'GENTPJU1',1,1,0,16,6,1,4.8,0.035,1.5,0.07,3.2,0.0,1.8,1.75,0.3,0.47,0.23,0.23,0.15,0.1,0.4, 0.1 /
38, 'USRMDL',1 ,'GENTPJU1',1,1,0,16,6,1,4.8,0.035,1.5,0.07,3.2,0.0,1.8,1.75,0.3,0.47,0.23,0.23,0.15,0.1,0.4, 0.1 /
39, 'USRMDL',1 ,'GENTPJU1',1,1,0,16,6,1,4.8,0.035,1.5,0.07,3.2,0.0,1.8,1.75,0.3,0.47,0.23,0.23,0.15,0.1,0.4, 0.1 /
@!
@!                 T'do T"do  T'qo T"q0 H   D   Xd  Xq   X'd X'q  X"d  Xl   S1.0 S1.2
@! 30, 'GENROU', 1, 10.2, 0.03,  1.5, 0.04,  4.2,  0.0,   1.0,  0.69,  0.31,  0.31, 0.00792, 0.125,   0.0,  0.0,/
@! 31, 'GENROU', 1, 6.56, 0.03,  1.5, 0.04, 3.03,  0.0,  2.95,  2.82, 0.697, 0.697, 0.29779,  0.35,   0.0,  0.0,/
@! 32, 'GENROU', 1,  5.7, 0.03,  1.5, 0.04, 3.58,  0.0, 2.495,  2.37, 0.531, 0.531, 0.02566, 0.304,   0.0,  0.0,/
@! 33, 'GENROU', 1, 5.69, 0.03,  1.5, 0.04, 2.86,  0.0,  2.62,  2.58, 0.436, 0.436, 0.00803, 0.295,   0.0,  0.0,/
@! 34, 'GENROU', 1,  5.4, 0.03, 0.44, 0.04,  2.6,  0.0,   6.7,   6.2,  1.32,  1.32, 0.00571,  0.54,   0.0,  0.0,/
@! 35, 'GENROU', 1,  7.3, 0.03,  0.4, 0.04, 3.48,  0.0,  2.54,  2.41,   0.5,   0.5, 0.46538, 0.224,   0.0,  0.0,/
@! 36, 'GENROU', 1, 5.66, 0.03,  1.5, 0.04, 2.64,  0.0,  2.95,  2.92,  0.49,  0.49, 0.02141, 0.322,   0.0,  0.0,/
@! 37, 'GENROU', 1,  6.7, 0.03, 0.41, 0.04, 2.43,  0.0,   2.9,   2.8,  0.57,  0.57, 0.06076,  0.28,   0.0,  0.0,/
@! 38, 'GENROU', 1, 4.79, 0.03, 1.96, 0.04, 3.45,  0.0, 2.106,  2.05,  0.57,  0.57, 0.01174, 0.298,   0.0,  0.0,/
@! 39, 'GENROU', 1,  7.0, 0.03,  0.7, 0.04, 50.0,  0.0,   0.2,  0.19,  0.06,  0.06, 0.00260,  0.03,   0.0,  0.0,/
// Exciters
@! // 30,'ESDC1A',1,0,5.0 ,0.06,0.0,0.0, 5.0, -5.0,-0.05,0.25 ,0.04,1.0 ,0.0,1.7,0.5 ,3,2.0  /
@! // 31,'ESDC1A',1,0,6.2 ,0.05,0.0,0.0, 5.0, -5.0, 0.63,0.41 ,0.06,0.5 ,0.0,3  ,0.66,4,0.88 /
@! // 32,'ESDC1A',1,0,5.0 ,0.06,0.0,0.0, 5.0, -5.0,-0.02,0.5  ,0.08,1.0 ,0.0,3  ,0.13,4,0.34 /
@! // 33,'ESDC1A',1,0,5.0 ,0.06,0.0,0.0, 5.0, -5.0,-0.05,0.5  ,0.08,1.0 ,0.0,3  ,0.08,4,0.31 /
@! // 34,'ESDC1A',1,0,40.0,0.02,0.0,0.0,10.0,-10.0,-0.04,0.785,0.03,1.0 ,0.0,3  ,0.03,4,0.91 /
@! // 35,'ESDC1A',1,0,5.0 ,0.02,0.0,0.0, 5.0, -5.0, 1.0 ,0.471,0.08,1.25,0.0,3  ,0.08,4,0.25 /
@! // 36,'ESDC1A',1,0,40.0,0.02,0.0,0.0, 6.5, -6.5, 1.0 ,0.73 ,0.03,1.0 ,0.0,3  ,0.03,4,0.74 /
@! // 37,'ESDC1A',1,0,5.0 ,0.02,0.0,0.0, 5.0, -5.0,-0.05,0.528,0.09,1.26,0.0,3  ,0.09,4,0.28 /
@! // 38,'ESDC1A',1,0,40.0,0.02,0.0,0.0,10.5,-10.5, 1.0 ,1.4  ,0.03,1.0 ,0.0,3  ,0.03,4,0.85 /
@! // 39,'ESDC1A',1,0,40.0,0.02,0.0,0.0,10.5,-10.5, 1.0 ,1.4  ,0.03,1.0 ,0.0,3  ,0.03,4,0.85 /
30,'IEEEX1',1,0.0, 5.0,0.06,0.0,0.0, 5.0, -5.0, -0.05,0.25 ,0.04,1.0 ,0.0,1.7,0.5 ,3.0,2.0  /
31,'IEEEX1',1,0.0, 6.2,0.05,0.0,0.0, 5.2, -5.0, -0.05,0.41 ,0.06,0.5 ,0.0,3.0,0.66,4.0,0.88 /
32,'IEEEX1',1,0.0, 5.0,0.06,0.0,0.0, 5.0, -5.0, -0.02,0.5  ,0.08,1.0 ,0.0,3.0,0.13,4.0,0.34 /
33,'IEEEX1',1,0.0, 5.0,0.06,0.0,0.0, 5.0, -5.0, -0.05,0.5  ,0.08,1.0 ,0.0,3.0,0.08,4.0,0.31 /
34,'IEEEX1',1,0.0,40.0,0.02,0.0,0.0,10.0,-10.0, -0.04,0.785,0.03,1.0 ,0.0,3.0,0.03,4.0,0.91 /
35,'IEEEX1',1,0.0, 5.0,0.02,0.0,0.0, 5.0, -5.0,  1.00,0.471,0.08,1.25,0.0,3.0,0.08,4.0,0.25 /
36,'IEEEX1',1,0.0,40.0,0.02,0.0,0.0, 6.5, -6.5,  1.00,0.73 ,0.03,1.0 ,0.0,3.0,0.03,4.0,0.74 /
37,'IEEEX1',1,0.0, 5.0,0.02,0.0,0.0, 5.0, -5.0, -0.05,0.528,0.09,1.26,0.0,3.0,0.09,4.0,0.28 /
38,'IEEEX1',1,0.0,40.0,0.02,0.0,0.0,10.5,-10.5,  1.00,1.4  ,0.03,1.0 ,0.0,3.0,0.03,4.0,0.85 /
39,'IEEEX1',1,0.0, 5.0,0.02,0.0,0.0,10.5,-10.5,  1.00,1.4  ,0.03,1.0 ,0.0,3.0,0.03,4.0,0.85 /
// Governors
30,'IEESGO',1,0.15,0,0.1,0.25,4.02,0,20.0,0.6,0.5,0.9,0,/
31,'IEESGO',1,0.15,0,0.1,0.25,4.02,0,20.0,0.6,0.5,0.9,0,/
32,'IEESGO',1,0.15,0,0.1,0.25,4.02,0,20.0,0.6,0.5,0.9,0,/
33,'IEESGO',1,0.15,0,0.1,0.25,4.02,0,20.0,0.6,0.5,0.9,0,/
34,'IEESGO',1,0.15,0,0.1,0.25,4.02,0,20.0,0.6,0.5,0.9,0,/
35,'IEESGO',1,0.15,0,0.1,0.25,4.02,0,20.0,0.6,0.5,0.9,0,/
36,'IEESGO',1,0.15,0,0.1,0.25,4.02,0,20.0,0.6,0.5,0.9,0,/
37,'IEESGO',1,0.15,0,0.1,0.25,4.02,0,20.0,0.6,0.5,0.9,0,/
38,'IEESGO',1,0.15,0,0.1,0.25,4.02,0,20.0,0.6,0.5,0.9,0,/
39,'IEESGO',1,0.15,0,0.1,0.25,4.02,0,20.0,0.6,0.5,0.9,0,/
// 30,'TGOV1',1,0.0,0.05,1.05,0.3,1.0,1.0,0.0,/
// 31,'TGOV1',1,0.0,0.05,1.05,0.3,1.0,1.0,0.0,/
// 32,'TGOV1',1,0.0,0.05,1.05,0.3,1.0,1.0,0.0,/
// 33,'TGOV1',1,0.0,0.05,1.05,0.3,1.0,1.0,0.0,/
// 34,'TGOV1',1,0.0,0.05,1.05,0.3,1.0,1.0,0.0,/
// 35,'TGOV1',1,0.0,0.05,1.05,0.3,1.0,1.0,0.0,/
// 36,'TGOV1',1,0.0,0.05,1.05,0.3,1.0,1.0,0.0,/
// 37,'TGOV1',1,0.0,0.05,1.05,0.3,1.0,1.0,0.0,/
// 38,'TGOV1',1,0.0,0.05,1.05,0.3,1.0,1.0,0.0,/
// 39,'TGOV1',1,0.0,0.05,1.05,0.3,1.0,1.0,0.0,/
//30 'IEEEST' 1   1  0  0  0  0  0  0  0  1    0.05  3  0.5  5  1  1    0.2  -0.2  0  0  /
//31 'IEEEST' 1   1  0  0  0  0  0  0  0  5    0.4  1   0.1  5  1  0.5  0.2  -0.2  0  0  /
//32 'IEEEST' 1   1  0  0  0  0  0  0  0  3    0.2  2   0.2  5  1  0.5  0.2  -0.2  0  0  /
//33 'IEEEST' 1   1  0  0  0  0  0  0  0  1    0.1  1   0.3  5  1  2    0.2  -0.2  0  0  /
//34 'IEEEST' 1   1  0  0  0  0  0  0  0  1.5  0.2  1   0.1  5  1  1    0.2  -0.2  0  0  /
//35 'IEEEST' 1   1  0  0  0  0  0  0  0  0.5  0.1  0.5 0.1  5  1  4    0.2  -0.2  0  0  /
//36 'IEEEST' 1   1  0  0  0  0  0  0  0  0.2  0.02 0.5 0.1  5  1  7.5  0.2  -0.2  0  0  /
//37 'IEEEST' 1   1  0  0  0  0  0  0  0  1    0.2  1   0.1  5  1  2    0.2  -0.2  0  0  /
//38 'IEEEST' 1   1  0  0  0  0  0  0  0  1    0.5  2   0.1  5  1  2    0.2  -0.2  0  0  /
//39 'IEEEST' 1   1  0  0  0  0  0  0  0  5    0.6  3   0.5  5  1  1    0.2  -0.2  0  0  /
// PSS
30,'PSS2A',1,1,0.1,3,0,5,1,2,2,0,2,4,2,0.25 ,1,0.5,0.1,30,0.15,0.03,0.15,0.03,0.1,-0.1,/
31,'PSS2A',1,1,0.1,3,0,5,1,2,2,0,2,4,2,0.25 ,1,0.5,0.1,30,0.15,0.03,0.15,0.03,0.1,-0.1,/
32,'PSS2A',1,1,0.1,3,0,5,1,2,2,0,2,4,2,0.4  ,1,0.5,0.1,30,0.15,0.03,0.15,0.03,0.1,-0.1,/
33,'PSS2A',1,1,0.1,3,0,5,1,2,2,0,2,4,2,0.2  ,1,0.5,0.1,30,0.15,0.03,0.15,0.03,0.1,-0.1,/
34,'PSS2A',1,1,0.1,3,0,5,1,2,2,0,2,4,2,0.333,1,0.5,0.1,30,0.15,0.03,0.15,0.03,0.1,-0.1,/
35,'PSS2A',1,1,0.1,3,0,5,1,2,2,0,2,4,2,0.333,1,0.5,0.1,30,0.15,0.03,0.15,0.03,0.1,-0.1,/
36,'PSS2A',1,1,0.1,3,0,5,1,2,2,0,2,4,2,0.2  ,1,0.5,0.1,30,0.15,0.03,0.15,0.03,0.1,-0.1,/
37,'PSS2A',1,1,0.1,3,0,5,1,2,2,0,2,4,2,0.333,1,0.5,0.1,30,0.15,0.03,0.15,0.03,0.1,-0.1,/
38,'PSS2A',1,1,0.1,3,0,5,1,2,2,0,2,4,2,0.333,1,0.5,0.1,30,0.15,0.03,0.15,0.03,0.1,-0.1,/
39,'PSS2A',1,1,0.1,3,0,5,1,2,2,0,2,4,2,0.333,1,0.5,0.1,30,0.15,0.03,0.15,0.03,0.1,-0.1,/
