// ieee14.dyr
// generator model
1,'GENROU',1,6.5,0.06,0.2,0.05,4.0,0.0,1.8,1.75,0.6,0.8,0.3,0.15,0.09,0.38,/
/1,'GENSAE',1,7.40,0.03,0.033,5.148,2.0,0.8979,0.646,0.2995,0.23,0.2396,0.0,0.0,/
2,'GENSAE',1,6.10,0.04,0.099,6.540,2.0,1.0500,0.980,0.1850,0.13,0.0000,0.0,0.0,/
3,'GENSAE',1,6.10,0.04,0.099,6.540,2.0,1.0500,0.980,0.1850,0.13,0.0000,0.0,0.0,/
6,'GENSAE',1,4.75,0.06,0.210,5.060,2.0,1.2500,1.220,0.2320,0.12,0.1340,0.0,0.0,/
8,'GENSAE',1,4.75,0.06,0.210,5.060,2.0,1.2500,1.220,0.2320,0.12,0.1340,0.0,0.0,/
// exciter models
1,'IEEEX1',1,0.01,200.0,0.02,0.0,0.0,7.32,-5.0,1.0,0.19,0.0012,1.0,0.0,0.0,0.0,0.0,0.0,/
2,'IEEEX1',1,0.01, 20.0,0.02,0.0,0.0,4.38,-5.0,1.0,1.98,0.0010,1.0,0.0,0.0,0.0,0.0,0.0,/
3,'IEEEX1',1,0.01, 20.0,0.02,0.0,0.0,4.38,-5.0,1.0,1.98,0.0010,1.0,0.0,0.0,0.0,0.0,0.0,/
6,'IEEEX1',1,0.01, 20.0,0.02,0.0,0.0,6.81,-5.0,1.0,0.70,0.0010,1.0,0.0,0.0,0.0,0.0,0.0,/
8,'IEEEX1',1,0.01, 20.0,0.02,0.0,0.0,6.81,-5.0,1.0,0.70,0.0010,1.0,0.0,0.0,0.0,0.0,0.0,/
// Governor models
1 'TGOV1' 1 0.05 0.05 1.05 0.3 1.0 1.0  0.0 /
2 'TGOV1' 1 0.05 0.05 1.05 0.3 1.0 1.0  0.0 /
3 'TGOV1' 1 0.05 0.05 1.05 0.3 1.0 1.0  0.0 /
6 'TGOV1' 1 0.05 0.05 1.05 0.3 1.0 1.0  0.0 /
8 'TGOV1' 1 0.05 0.05 1.05 0.3 1.0 1.0  0.0 /
// PSS models
/ 1 'STAB1' 1 5.01 10.0 19.0 0.02 19.0 0.02 0.1 /
1,'PSS2A',1,1,0,3,0,5,1,10,0,0,10,0,10,1.78571,1,0.5,0.1,20,0.277,0.02,0.052,0.01,0.1,-0.1,/
2,'PSS2A',1,1,0,3,0,5,1,10,0,0,10,0,10,1.78571,1,0.5,0.1,20,0.052,0.01,0.281,0.02,0.1,-0.1,/
3,'PSS2A',1,1,0,3,0,5,1,10,0,0,10,0,10,1.78571,1,0.5,0.1,20,0.052,0.01,0.277,0.02,0.1,-0.1,/
6,'PSS2A',1,1,0,3,0,5,1,10,0,0,10,0,10,1.78571,1,0.5,0.1,20,0.052,0.01,0.281,0.02,0.1,-0.1,/
8,'PSS2A',1,1,0,3,0,5,1,10,0,0,10,0,10,1.00000,1,0.5,0.1,20,0.090,0.01,0.090,0.01,0.1,-0.1,/
